
  -INDIGO-01000000003D

  4  3  0  0  0  0  0  0  0  0999 V2000
    0.0000    0.0000    0.0000 C   0  0  0  0  0  0  0  0  0  0  0  0
    1.0000    0.0000    0.0000 F   0  0  0  0  0  0  0  0  0  0  0  0
    1.0000    1.0000    0.0000 Cl  0  0  0  0  0  0  0  0  0  0  0  0
    1.0000    1.0000    1.0000 Br  0  0  0  0  0  0  0  0  0  0  0  0
  1  2  1  0  0  0  0
  1  3  1  0  0  0  0
  1  4  1  0  0  0  0
M  END
