spatial-0037-00
  -INDIGO-10201021543D

 45 46  0  0  0  0  0  0  0  0999 V2000
   16.4135    0.5514   -0.0955 O   0  0  0  0  0  0  0  0  0  0  0  0
   17.0440    0.9885   -0.0452 H   0  0  0  0  0  0  0  0  0  0  0  0
   12.7436    2.5022    0.4282 O   0  0  0  0  0  0  0  0  0  0  0  0
   11.9471    0.7232    1.4285 O   0  0  0  0  0  0  0  0  0  0  0  0
   14.0325   -0.8489    0.3718 O   0  0  0  0  0  0  0  0  0  0  0  0
   12.9049   -0.9032    2.7903 O   0  0  0  0  0  0  0  0  0  0  0  0
   11.9233   -1.0194   -0.5997 O   0  0  0  0  0  0  0  0  0  0  0  0
   12.8656    1.3282    0.6634 C   0  0  0  0  0  0  0  0  0  0  0  0
   12.0532   -0.7011    1.7099 C   0  0  0  0  0  0  0  0  0  0  0  0
   12.7256   -1.3746    0.5083 C   0  0  0  0  0  0  0  0  0  0  0  0
   14.0399    0.5493    0.1037 C   0  0  0  0  0  0  0  0  0  0  0  0
   14.0328    0.6656   -0.8893 H   0  0  0  0  0  0  0  0  0  0  0  0
   15.3415    1.1533    0.6285 C   0  0  0  0  0  0  0  0  0  0  0  0
   15.3356    2.1300    0.4149 H   0  0  0  0  0  0  0  0  0  0  0  0
   15.4916    1.0079    2.1125 C   0  0  0  0  0  0  0  0  0  0  0  0
   15.6007    0.1414    2.4863 H   0  0  0  0  0  0  0  0  0  0  0  0
   15.4754    2.0649    2.9145 C   0  0  0  0  0  0  0  0  0  0  0  0
   15.4211    2.9072    2.4791 H   0  0  0  0  0  0  0  0  0  0  0  0
   15.5295    2.1163    4.3810 C   0  0  0  0  0  0  0  0  0  0  0  0
   15.3190    3.3297    5.0054 C   0  0  0  0  0  0  0  0  0  0  0  0
   15.1578    4.1011    4.4745 H   0  0  0  0  0  0  0  0  0  0  0  0
   15.3365    3.4506    6.3805 C   0  0  0  0  0  0  0  0  0  0  0  0
   15.1750    4.2924    6.7903 H   0  0  0  0  0  0  0  0  0  0  0  0
   15.5914    2.3370    7.1538 C   0  0  0  0  0  0  0  0  0  0  0  0
   15.6152    2.4119    8.0996 H   0  0  0  0  0  0  0  0  0  0  0  0
   15.8088    1.1237    6.5561 C   0  0  0  0  0  0  0  0  0  0  0  0
   15.9843    0.3600    7.0932 H   0  0  0  0  0  0  0  0  0  0  0  0
   15.7741    1.0000    5.1841 C   0  0  0  0  0  0  0  0  0  0  0  0
   15.9185    0.1515    4.7815 H   0  0  0  0  0  0  0  0  0  0  0  0
   12.4633   -0.3910    4.0534 C   0  0  0  0  0  0  0  0  0  0  0  0
   13.2142   -0.3782    4.6809 H   0  0  0  0  0  0  0  0  0  0  0  0
   11.7507   -0.9648    4.4077 H   0  0  0  0  0  0  0  0  0  0  0  0
   12.1198    0.5189    3.9343 H   0  0  0  0  0  0  0  0  0  0  0  0
   10.6355   -1.1584    1.9543 C   0  0  0  0  0  0  0  0  0  0  0  0
   10.2140   -0.5719    2.6167 H   0  0  0  0  0  0  0  0  0  0  0  0
   10.6416   -2.0793    2.2891 H   0  0  0  0  0  0  0  0  0  0  0  0
   10.1299   -1.1201    1.1153 H   0  0  0  0  0  0  0  0  0  0  0  0
   12.8713   -2.8765    0.6973 C   0  0  0  0  0  0  0  0  0  0  0  0
   13.5084   -3.2286    0.0411 H   0  0  0  0  0  0  0  0  0  0  0  0
   12.0010   -3.3072    0.5700 H   0  0  0  0  0  0  0  0  0  0  0  0
   13.1978   -3.0618    1.6021 H   0  0  0  0  0  0  0  0  0  0  0  0
   12.3609   -1.5385   -1.8650 C   0  0  0  0  0  0  0  0  0  0  0  0
   11.8183   -1.1493   -2.5828 H   0  0  0  0  0  0  0  0  0  0  0  0
   12.2623   -2.5124   -1.8701 H   0  0  0  0  0  0  0  0  0  0  0  0
   13.3038   -1.3046   -2.0046 H   0  0  0  0  0  0  0  0  0  0  0  0
 42 43  1  0  0  0  0
 42 44  1  0  0  0  0
 42 45  1  0  0  0  0
 38 39  1  0  0  0  0
 38 40  1  0  0  0  0
 38 41  1  0  0  0  0
 34 35  1  0  0  0  0
 34 36  1  0  0  0  0
 34 37  1  0  0  0  0
 30 31  1  0  0  0  0
 30 32  1  0  0  0  0
 30 33  1  0  0  0  0
 28 29  1  0  0  0  0
 26 27  1  0  0  0  0
 26 28  4  0  0  0  0
 24 25  1  0  0  0  0
 24 26  4  0  0  0  0
 22 23  1  0  0  0  0
 22 24  4  0  0  0  0
 20 21  1  0  0  0  0
 20 22  4  0  0  0  0
 19 20  4  0  0  0  0
 19 28  4  0  0  0  0
 17 18  1  0  0  0  0
 17 19  1  0  0  0  0
 15 16  1  0  0  0  0
 15 17  2  0  0  0  0
 13 14  1  6  0  0  0
 13 15  1  0  0  0  0
 11 12  1  1  0  0  0
 11 13  1  0  0  0  0
 10 38  1  6  0  0  0
  9 10  1  0  0  0  0
  9 34  1  1  0  0  0
  8 11  1  0  0  0  0
  7 10  1  0  0  0  0
  7 42  1  0  0  0  0
  6  9  1  0  0  0  0
  6 30  1  0  0  0  0
  5 10  1  0  0  0  0
  5 11  1  0  0  0  0
  4  8  1  0  0  0  0
  4  9  1  0  0  0  0
  3  8  2  0  0  0  0
  1  2  1  0  0  0  0
  1 13  1  0  0  0  0
M  END

